Version 4
SHEET 1 880 680
WIRE -496 -144 -528 -144
WIRE -384 -144 -416 -144
WIRE -544 -128 -528 -144
WIRE -64 -128 -128 -128
WIRE -544 -80 -544 -128
WIRE -64 -80 -64 -128
WIRE 224 48 224 16
WIRE -64 64 -64 0
WIRE 192 64 -64 64
WIRE 384 80 256 80
WIRE 192 96 128 96
WIRE -64 144 -64 64
WIRE 224 144 224 112
WIRE 224 144 192 144
WIRE -464 160 -496 160
WIRE -352 160 -384 160
WIRE -512 176 -496 160
WIRE 128 176 128 96
WIRE 128 176 112 176
WIRE -512 224 -512 176
WIRE 224 240 224 208
WIRE 128 256 128 176
WIRE 192 256 128 256
WIRE 384 272 256 272
WIRE -64 288 -64 224
WIRE 192 288 -64 288
WIRE -64 336 -64 288
WIRE 224 336 224 304
WIRE 224 336 192 336
WIRE -64 480 -64 416
FLAG 224 16 0
FLAG 192 144 Vcc
FLAG 224 208 0
FLAG 192 336 Vcc
FLAG 112 176 OSC
IOPIN 112 176 In
FLAG -128 -128 Vcc
IOPIN -128 -128 In
FLAG -64 480 0
FLAG 384 80 A
IOPIN 384 80 Out
FLAG 384 272 B
IOPIN 384 272 Out
FLAG -384 -144 Vcc
IOPIN -384 -144 Out
FLAG -544 -80 0
FLAG -352 160 OSC
IOPIN -352 160 Out
FLAG -512 224 0
SYMBOL Opamps\\LT1007 224 144 M180
SYMATTR InstName U1
SYMBOL Opamps\\LT1007 224 336 M180
SYMATTR InstName U2
SYMBOL res -80 -96 R0
SYMATTR InstName R1
SYMATTR Value 33k
SYMBOL res -80 128 R0
SYMATTR InstName R2
SYMATTR Value 10k
SYMBOL res -80 320 R0
SYMATTR InstName R3
SYMATTR Value 12k
SYMBOL voltage -400 -144 R90
WINDOW 0 -32 56 VBottom 2
WINDOW 3 32 56 VTop 2
WINDOW 123 0 0 Left 0
WINDOW 39 0 0 Left 0
SYMATTR InstName V1
SYMATTR Value 5V
SYMBOL voltage -368 160 R90
WINDOW 0 -32 56 VBottom 2
WINDOW 3 32 56 VTop 2
WINDOW 123 0 0 Left 0
WINDOW 39 0 0 Left 0
SYMATTR InstName V2
SYMATTR Value PULSE(2.5V 2.28V 0 1e-3 1e-3 0 2e-3)
TEXT -514 -14 Left 2 !.tran 20m
