Version 4
SHEET 1 1420 1108
WIRE -512 -224 -544 -224
WIRE -400 -224 -432 -224
WIRE -144 -224 -208 -224
WIRE 288 -224 -144 -224
WIRE -560 -208 -544 -224
WIRE 288 -192 288 -224
WIRE -144 -176 -144 -224
WIRE -560 -160 -560 -208
WIRE 288 -80 288 -128
WIRE 528 -80 288 -80
WIRE 608 -80 528 -80
WIRE 528 -48 528 -80
WIRE 144 -32 -32 -32
WIRE -144 -16 -144 -96
WIRE 384 0 352 0
WIRE 48 16 32 16
WIRE 384 32 384 0
WIRE 48 48 48 16
WIRE 288 48 288 -80
WIRE 352 48 288 48
WIRE -32 64 -32 -32
WIRE 16 64 -32 64
WIRE 528 64 528 32
WIRE 528 64 416 64
WIRE 144 80 144 -32
WIRE 144 80 80 80
WIRE 176 80 144 80
WIRE 288 80 256 80
WIRE 352 80 288 80
WIRE -144 96 -144 64
WIRE 16 96 -144 96
WIRE -144 128 -144 96
WIRE 48 128 48 112
WIRE 384 128 384 96
WIRE 288 240 288 80
WIRE 368 240 288 240
WIRE 528 240 528 64
WIRE 528 240 448 240
WIRE -144 272 -144 208
WIRE -144 384 -144 352
FLAG 384 128 0
FLAG -144 384 0
FLAG 48 128 0
FLAG 32 16 Vcc
FLAG 352 0 Vcc
FLAG -400 -224 Vcc
IOPIN -400 -224 Out
FLAG -560 -160 0
FLAG -208 -224 Vcc
IOPIN -208 -224 In
FLAG 608 -80 OSC
IOPIN 608 -80 Out
SYMBOL Opamps\\LT1007 384 0 R0
SYMATTR InstName U2
SYMBOL res 272 64 R90
WINDOW 0 0 56 VBottom 2
WINDOW 3 32 56 VTop 2
SYMATTR InstName R1
SYMATTR Value 47k
SYMBOL cap 272 -192 R0
SYMATTR InstName C1
SYMATTR Value 10n
SYMBOL res 512 -64 R0
SYMATTR InstName R2
SYMATTR Value 470k
SYMBOL res 464 224 R90
WINDOW 0 0 56 VBottom 2
WINDOW 3 32 56 VTop 2
SYMATTR InstName R3
SYMATTR Value 220k
SYMBOL res -160 -32 R0
SYMATTR InstName R4
SYMATTR Value 25k
SYMBOL res -160 -192 R0
SYMATTR InstName R5
SYMATTR Value 100k
SYMBOL res -160 112 R0
SYMATTR InstName R6
SYMATTR Value 75k
SYMBOL res -160 256 R0
SYMATTR InstName R7
SYMATTR Value 10k
SYMBOL Opamps\\LT1007 48 16 R0
SYMATTR InstName U1
SYMBOL voltage -416 -224 R90
WINDOW 0 -32 56 VBottom 2
WINDOW 3 32 56 VTop 2
WINDOW 123 0 0 Left 0
WINDOW 39 0 0 Left 0
SYMATTR InstName V1
SYMATTR Value 5V
TEXT -530 -94 Left 2 !.tran 20m
TEXT -208 -48 Left 2 ;POT
RECTANGLE Normal -64 224 -208 -32 1
